 &LAYERS_PARM01
 layers_name(1) ='TH',
 layers_bounds(1:41,1)= 10,10.25,10.5,10.75,11,11.25,11.5,11.75,12,12.25,12.5,12.75,
                        13,13.25,13.5,13.75,14,14.25,14.5,14.75,15,15.25,15.5,15.75,
                        16,16.25,16.5,16.75,17,17.25,17.5,17.75,18,18.25,18.5,18.75,
                        19,19.25,19.5,19.75,20,
 &
