# Packages
 &PACKAGES
 usePTRACERS=.FALSE.
 usediagnostics=.FALSE.
 uselayers=.FALSE.
 useOBCS=.FALSE.
 &
